[General]
**.statistic-recording = false
**.scalar-recording = false
**.vector-recording = false
sim-time-limit = 1s

[Config single_stationary_mobile_node]
network = single_stationary_mobile_node
*.visualizer.mediumVisualizer.displaySignals = true
**.bitrate = 1Mbps
**.displayCommunicationRange = true
**.communicationRange = 110m
**.mobilesNumber = 225

**.logger.directoryPath = "stationary_grid"

**.mobileNodes[*].mobility.numHosts = 225 # Equals to **.mobilesNumber
**.mobileNodes[*].mobility.constraintAreaMinX = 100m
**.mobileNodes[*].mobility.constraintAreaMinY = 100m
**.mobileNodes[*].mobility.constraintAreaMaxX = 175m
**.mobileNodes[*].mobility.constraintAreaMaxY = 175m

*.anchorNode1.**.address = "10-00-00-00-00-01"
*.anchorNode2.**.address = "10-00-00-00-00-02"
*.anchorNode3.**.address = "10-00-00-00-00-03"
*.anchorNode4.**.address = "10-00-00-00-00-04"

*.anchorNode1.**.predecessorAddress = "10-00-00-00-00-04"
*.anchorNode2.**.predecessorAddress = "10-00-00-00-00-01"
*.anchorNode3.**.predecessorAddress = "10-00-00-00-00-02"
*.anchorNode4.**.predecessorAddress = "10-00-00-00-00-03"

*.anchorNode1.*.initialAnchor = true